[General]
network = AeroCom
num-rngs = 3
sim-time-limit = 10s	# valori utilizzati per scenari esponenziali
repeat = 300			# e lognormali con 20 DL
seed-set = ${repetition}
**.datalink[*].rng-0 = 0
**.datalink[*].rng-1 = 1
**.pktGenerator.rng-0 = 2
AeroCom.AC[*].pktGenerator.mean = 1/33482.1428
*.mode = 2

[Config _1AC20DL5MalExp]
*.DLNumber = 20
*.oracle.malus = 0.05
**.datalink[*].distribution = "exp"

[Config _1AC20DL10MalExp]
*.DLNumber = 20
**.datalink[*].distribution = "exp"
**.oracle.malus = 0.1

[Config _1AC5DL5MalExp]
*.DLNumber = 5
*.oracle.malus = 0.05
**.datalink[*].distribution = "exp"

[Config _1AC5DL10MalExp]
*.DLNumber = 5
*.oracle.malus = 0.1
**.datalink[*].distribution = "exp"

[Config _1AC20DL5MalLognorm]
*.DLNumber = 20
**.datalink[*].distribution = "lognorm"
**.datalink[*].distrMean = 0
**.datalink[*].distrVar = 1
**.oracle.malus = 0.05

[Config _1AC20DL10MalLognorm]
*.DLNumber = 20
**.datalink[*].distribution = "lognorm"
**.datalink[*].distrMean = 0
**.datalink[*].distrVar = 1
**.oracle.malus = 0.1

[Config _1AC5DL5MalLognorm]
sim-time-limit = 30s
repeat = 100
*.DLNumber = 5
**.datalink[*].distribution = "lognorm"
**.datalink[*].distrMean = 0
**.datalink[*].distrVar = 1
**.oracle.malus = 0.05

[Config _1AC5DL10MalLognorm]
sim-time-limit = 30s
repeat = 100
*.DLNumber = 5
**.datalink[*].distribution = "lognorm"
**.datalink[*].distrMean = 0
**.datalink[*].distrVar = 1
**.oracle.malus = 0.1

