[General]
network = AeroCom
num-rngs = 3
**.datalink[*].minCapacity = 12500000 # 10%
**.datalink[*].maxCapacity = 112500000 # 90%
**.datalink[*].rng-0 = 0
**.datalink[*].rng-1 = 1
**.pktGenerator.rng-0 = 2
repeat = 10
seed-set = ${repetition}
AeroCom.AC[*].pktGenerator.mean = 1/33482.1428

[Config _1AC1DL_75_exp]
warmup-period = 1s  
sim-time-limit =25s 

[Config _1AC1DL_75_log]
warmup-period = 1s
sim-time-limit =200s
AeroCom.datalink[*].distribution = "lognorm"
AeroCom.datalink[*].distrMean = 0
AeroCom.datalink[*].distrVar = 1