[General]
network = aerocomsystem2.AeroCom
num-rngs = 3
sim-time-limit = 100s
**.datalink[*].minCapacity = 62500001 # valori per ottenere una
**.datalink[*].maxCapacity = 62499999 # capacita' pressoche' costante
**.datalink[*].rng-0 = 0
**.datalink[*].rng-1 = 1
**.pktGenerator.rng-0 = 2
repeat = 10
seed-set = ${repetition}

[Config singleAircraftSingleChannelRho01]
AeroCom.AC[*].pktGenerator.mean = 1/4464.28571 # 4464.28571 = E[C]*0.1 / DimPkt 

[Config singleAircraftSingleChannelRho075]
AeroCom.AC[*].pktGenerator.mean = 1/33482.1428 # 33482.1428 = E[C]*0.75 / DimPkt

[Config singleAircraftMultiChannel-mode2]
**.datalink[*].maxCapacity = 112500000 #90% 125000000
**.datalink[*].minCapacity = 12500000 #10% 125000000
**.datalink[*].distrMean = 0.003 # Il DL cambia capacita' in media ogni 100 pkt ricevuti
*.DLNumber = 5
AeroCom.AC[*].pktGenerator.mean = 1/33482.1428
*.mode = 2

[Config singleAircraftMultiChannelRho075-mode2NoMalus]
extends = singleAircraftMultiChannel-mode2
*.oracle.malus = 0

[Config singleAircraftMultiChannelRho075-mode2WithMalus]
extends = singleAircraftMultiChannel-mode2
*.oracle.malus = 0.05 #5%

[Config singleAircraftMultiChannelRho075-mode2WithMalusPlus]
extends = singleAircraftMultiChannel-mode2
*.oracle.malus = 0.06 #5%

[Config singleAircraftMultiChannelRho075-mode2WithLambdaPlus]
extends = singleAircraftMultiChannel-mode2
*.oracle.malus = 0.05 #5%
AeroCom.AC[*].pktGenerator.mean = 1/34486 # +3% al lambda iniziale

[Config Consistency_2AC1DL_0375]
AeroCom.ACNumber = 2
AeroCom.AC[*].pktGenerator.mean = 1/16741.0714 # meta' di rho=0,75



